<?xml version="1.0" encoding="utf-8"?>
<!DOCTYPE population SYSTEM "http://www.matsim.org/files/dtd/population_v6.dtd">

<population>



<!-- ====================================================================== -->

	<person id="10000307">
		<plan score="112.32830936139034" selected="yes">
			<activity type="home" link="78105" x="4462980.5" y="5333999.0" end_time="15:24:48" >
			</activity>
			<leg mode="walk" trav_time="00:10:30">
			</leg>
			<activity type="other" link="257199" x="4459093.245366749" y="5328177.373093174" end_time="16:10:14" >
			</activity>
			<leg mode="walk" trav_time="00:10:30">
			</leg>
			<activity type="home" link="78105" x="4462980.5" y="5333999.0" start_time="21:24:48" >
			</activity>
		</plan>

	</person>


</population>
