<?xml version="1.0" encoding="UTF-8"?>
<!DOCTYPE network SYSTEM "http://www.matsim.org/files/dtd/network_v2.dtd">
<network name="test-scenario">

<!-- ====================================================================== -->

	<nodes>
		<node id="00" x="0.0" y="0.0" >
		</node>
		<node id="01" x="10.0" y="0.0" >
		</node>
		<node id="02" x="5010.0" y="0.0" >
		</node>
		<node id="03" x="5020.0" y="0.0" >
		</node>
		<node id="04A" x="6020.0" y="500.0" >
		</node>
		<node id="04B" x="6020.0" y="-500.0" >
		</node>
		<node id="06A" x="14020.0" y="500.0" >
		</node>
		<node id="06B" x="14020.0" y="-500.0" >
		</node>
		<node id="07" x="15020.0" y="0.0" >
		</node>
		<node id="08" x="15030.0" y="0.0" >
		</node>
		<node id="09" x="20030.0" y="0.0" >
		</node>
		<node id="10" x="20040.0" y="0.0" >
		</node>
	</nodes>

<!-- ====================================================================== -->

	<links capperiod="01:00:00" effectivecellsize="7.5" effectivelanewidth="3.75">
		<link id="0001" from="00" to="01" length="10.0" freespeed="16.7" capacity="600.0" permlanes="1.0" oneway="1" modes="bus,pt,car" >
		</link>
		<link id="0100" from="01" to="00" length="10.0" freespeed="16.7" capacity="600.0" permlanes="1.0" oneway="1" modes="bus,pt,car" >
		</link>
		<link id="0102" from="01" to="02" length="5000.0" freespeed="16.7" capacity="600.0" permlanes="1.0" oneway="1" modes="bus,pt,car" >
		</link>
		<link id="0201" from="02" to="01" length="5000.0" freespeed="16.7" capacity="600.0" permlanes="1.0" oneway="1" modes="bus,pt,car" >
		</link>
		<link id="0203" from="02" to="03" length="10.0" freespeed="16.7" capacity="600.0" permlanes="1.0" oneway="1" modes="bus,pt,car" >
		</link>
		<link id="0302" from="03" to="02" length="10.0" freespeed="16.7" capacity="600.0" permlanes="1.0" oneway="1" modes="bus,pt,car" >
		</link>
		<link id="0304A" from="03" to="04A" length="1000.0" freespeed="16.7" capacity="600.0" permlanes="1.0" oneway="1" modes="bus,pt,car" >
		</link>
		<link id="0304B" from="03" to="04B" length="1000.0" freespeed="16.7" capacity="600.0" permlanes="1.0" oneway="1" modes="bus,pt,car" >
		</link>
		<link id="0307" from="07" to="03" length="99999.0" freespeed="1.0" capacity="1.0" permlanes="1.0" oneway="1" modes="car" >
		</link>
		<link id="04A03" from="04A" to="03" length="1000.0" freespeed="16.7" capacity="600.0" permlanes="1.0" oneway="1" modes="bus,pt,car" >
		</link>
		<link id="04B03" from="04B" to="03" length="1000.0" freespeed="16.7" capacity="600.0" permlanes="1.0" oneway="1" modes="bus,pt,car" >
		</link>
		<link id="06A07" from="06A" to="07" length="1000.0" freespeed="16.7" capacity="600.0" permlanes="1.0" oneway="1" modes="bus,pt,car" >
		</link>
		<link id="06B07" from="06B" to="07" length="1000.0" freespeed="16.7" capacity="600.0" permlanes="1.0" oneway="1" modes="bus,pt,car" >
		</link>
		<link id="0703" from="03" to="07" length="99999.0" freespeed="1.0" capacity="1.0" permlanes="1.0" oneway="1" modes="car" >
		</link>
		<link id="0706A" from="07" to="06A" length="1000.0" freespeed="16.7" capacity="600.0" permlanes="1.0" oneway="1" modes="bus,pt,car" >
		</link>
		<link id="0706B" from="07" to="06B" length="1000.0" freespeed="16.7" capacity="600.0" permlanes="1.0" oneway="1" modes="bus,pt,car" >
		</link>
		<link id="0708" from="07" to="08" length="10.0" freespeed="16.7" capacity="600.0" permlanes="1.0" oneway="1" modes="bus,pt,car" >
		</link>
		<link id="0807" from="08" to="07" length="10.0" freespeed="16.7" capacity="600.0" permlanes="1.0" oneway="1" modes="bus,pt,car" >
		</link>
		<link id="0809" from="08" to="09" length="5000.0" freespeed="16.7" capacity="600.0" permlanes="1.0" oneway="1" modes="bus,pt,car" >
		</link>
		<link id="0908" from="09" to="08" length="5000.0" freespeed="16.7" capacity="600.0" permlanes="1.0" oneway="1" modes="bus,pt,car" >
		</link>
		<link id="0910" from="09" to="10" length="10.0" freespeed="16.7" capacity="600.0" permlanes="1.0" oneway="1" modes="bus,pt,car" >
		</link>
		<link id="1009" from="10" to="09" length="10.0" freespeed="16.7" capacity="600.0" permlanes="1.0" oneway="1" modes="bus,pt,car" >
		</link>
	</links>
</network>
