<?xml version="1.0" encoding="UTF-8"?>
<!DOCTYPE network SYSTEM "http://www.matsim.org/files/dtd/network_v2.dtd">
<network name="test-scenario-uam">

	<attributes>
		<attribute name="coordinateReferenceSystem" class="java.lang.String" >Atlantis</attribute>
		<attribute name="uamMaxLinkFreeSpeed" class="java.lang.Double" >100.0</attribute>
	</attributes>
<!-- ====================================================================== -->

	<nodes>
		<node id="00" x="0.0" y="0.0" >
		</node>
		<node id="01" x="10.0" y="0.0" >
		</node>
		<node id="02" x="5010.0" y="0.0" >
		</node>
		<node id="03" x="5020.0" y="0.0" >
		</node>
		<node id="04A" x="6020.0" y="500.0" >
		</node>
		<node id="04B" x="6020.0" y="-500.0" >
		</node>
		<node id="06A" x="14020.0" y="500.0" >
		</node>
		<node id="06B" x="14020.0" y="-500.0" >
		</node>
		<node id="07" x="15020.0" y="0.0" >
		</node>
		<node id="08" x="15030.0" y="0.0" >
		</node>
		<node id="09" x="20030.0" y="0.0" >
		</node>
		<node id="10" x="20040.0" y="0.0" >
		</node>
		<node id="uam_st_00_fa" x="6020.0" y="500.0" >
		</node>
		<node id="uam_st_00_ga" x="6020.0" y="500.0" >
		</node>
		<node id="uam_st_01_fa" x="6020.0" y="-500.0" >
		</node>
		<node id="uam_st_01_ga" x="6020.0" y="-500.0" >
		</node>
		<node id="uam_st_04_fa" x="14020.0" y="500.0" >
		</node>
		<node id="uam_st_04_ga" x="14020.0" y="500.0" >
		</node>
		<node id="uam_st_05_fa" x="14020.0" y="-500.0" >
		</node>
		<node id="uam_st_05_ga" x="14020.0" y="-500.0" >
		</node>
		<node id="uam_wp_00_fl" x="6020.0" y="500.0" >
		</node>
		<node id="uam_wp_01_fl" x="6020.0" y="-500.0" >
		</node>
		<node id="uam_wp_02_fl" x="7515.0" y="250.0" >
		</node>
		<node id="uam_wp_03_fl" x="12525.0" y="-250.0" >
		</node>
		<node id="uam_wp_04_fl" x="14020.0" y="500.0" >
		</node>
		<node id="uam_wp_05_fl" x="14020.0" y="-500.0" >
		</node>
	</nodes>

<!-- ====================================================================== -->

	<links capperiod="01:00:00" effectivecellsize="7.5" effectivelanewidth="3.75">
		<link id="0001" from="00" to="01" length="10.0" freespeed="16.7" capacity="600.0" permlanes="1.0" oneway="1" modes="bus,pt,car" >
		</link>
		<link id="0100" from="01" to="00" length="10.0" freespeed="16.7" capacity="600.0" permlanes="1.0" oneway="1" modes="bus,pt,car" >
		</link>
		<link id="0102" from="01" to="02" length="5000.0" freespeed="16.7" capacity="600.0" permlanes="1.0" oneway="1" modes="bus,pt,car" >
		</link>
		<link id="0201" from="02" to="01" length="5000.0" freespeed="16.7" capacity="600.0" permlanes="1.0" oneway="1" modes="bus,pt,car" >
		</link>
		<link id="0203" from="02" to="03" length="10.0" freespeed="16.7" capacity="600.0" permlanes="1.0" oneway="1" modes="bus,pt,car" >
		</link>
		<link id="0302" from="03" to="02" length="10.0" freespeed="16.7" capacity="600.0" permlanes="1.0" oneway="1" modes="bus,pt,car" >
		</link>
		<link id="0304A" from="03" to="04A" length="1000.0" freespeed="16.7" capacity="600.0" permlanes="1.0" oneway="1" modes="bus,pt,car" >
		</link>
		<link id="0304B" from="03" to="04B" length="1000.0" freespeed="16.7" capacity="600.0" permlanes="1.0" oneway="1" modes="bus,pt,car" >
		</link>
		<link id="0307" from="07" to="03" length="99999.0" freespeed="1.0" capacity="1.0" permlanes="1.0" oneway="1" modes="car" >
		</link>
		<link id="04A03" from="04A" to="03" length="1000.0" freespeed="16.7" capacity="600.0" permlanes="1.0" oneway="1" modes="bus,pt,car" >
		</link>
		<link id="04B03" from="04B" to="03" length="1000.0" freespeed="16.7" capacity="600.0" permlanes="1.0" oneway="1" modes="bus,pt,car" >
		</link>
		<link id="06A07" from="06A" to="07" length="1000.0" freespeed="16.7" capacity="600.0" permlanes="1.0" oneway="1" modes="bus,pt,car" >
		</link>
		<link id="06B07" from="06B" to="07" length="1000.0" freespeed="16.7" capacity="600.0" permlanes="1.0" oneway="1" modes="bus,pt,car" >
		</link>
		<link id="0703" from="03" to="07" length="99999.0" freespeed="1.0" capacity="1.0" permlanes="1.0" oneway="1" modes="car" >
		</link>
		<link id="0706A" from="07" to="06A" length="1000.0" freespeed="16.7" capacity="600.0" permlanes="1.0" oneway="1" modes="bus,pt,car" >
		</link>
		<link id="0706B" from="07" to="06B" length="1000.0" freespeed="16.7" capacity="600.0" permlanes="1.0" oneway="1" modes="bus,pt,car" >
		</link>
		<link id="0708" from="07" to="08" length="10.0" freespeed="16.7" capacity="600.0" permlanes="1.0" oneway="1" modes="bus,pt,car" >
		</link>
		<link id="0807" from="08" to="07" length="10.0" freespeed="16.7" capacity="600.0" permlanes="1.0" oneway="1" modes="bus,pt,car" >
		</link>
		<link id="0809" from="08" to="09" length="5000.0" freespeed="16.7" capacity="600.0" permlanes="1.0" oneway="1" modes="bus,pt,car" >
		</link>
		<link id="0908" from="09" to="08" length="5000.0" freespeed="16.7" capacity="600.0" permlanes="1.0" oneway="1" modes="bus,pt,car" >
		</link>
		<link id="0910" from="09" to="10" length="10.0" freespeed="16.7" capacity="600.0" permlanes="1.0" oneway="1" modes="bus,pt,car" >
		</link>
		<link id="1009" from="10" to="09" length="10.0" freespeed="16.7" capacity="600.0" permlanes="1.0" oneway="1" modes="bus,pt,car" >
		</link>
		<link id="uam_gl-04A-uam_st_00_ga" from="04A" to="uam_st_00_ga" length="1.0" freespeed="100.0" capacity="99999.0" permlanes="1.0" oneway="1" modes="car" >
		</link>
		<link id="uam_gl-04B-uam_st_01_ga" from="04B" to="uam_st_01_ga" length="1.0" freespeed="100.0" capacity="99999.0" permlanes="1.0" oneway="1" modes="car" >
		</link>
		<link id="uam_gl-06A-uam_st_04_ga" from="06A" to="uam_st_04_ga" length="1.0" freespeed="100.0" capacity="99999.0" permlanes="1.0" oneway="1" modes="car" >
		</link>
		<link id="uam_gl-06B-uam_st_05_ga" from="06B" to="uam_st_05_ga" length="1.0" freespeed="100.0" capacity="99999.0" permlanes="1.0" oneway="1" modes="car" >
		</link>
		<link id="uam_gl-uam_st_00_ga-04A" from="uam_st_00_ga" to="04A" length="1.0" freespeed="100.0" capacity="99999.0" permlanes="1.0" oneway="1" modes="car" >
		</link>
		<link id="uam_gl-uam_st_01_ga-04B" from="uam_st_01_ga" to="04B" length="1.0" freespeed="100.0" capacity="99999.0" permlanes="1.0" oneway="1" modes="car" >
		</link>
		<link id="uam_gl-uam_st_04_ga-06A" from="uam_st_04_ga" to="06A" length="1.0" freespeed="100.0" capacity="99999.0" permlanes="1.0" oneway="1" modes="car" >
		</link>
		<link id="uam_gl-uam_st_05_ga-06B" from="uam_st_05_ga" to="06B" length="1.0" freespeed="100.0" capacity="99999.0" permlanes="1.0" oneway="1" modes="car" >
		</link>
		<link id="uam_hl-uam_wp_00_fl-uam_wp_02_fl" from="uam_wp_00_fl" to="uam_wp_02_fl" length="1515.7588858390375" freespeed="100.0" capacity="999.0" permlanes="1.0" oneway="1" modes="uam" >
			<attributes>
				<attribute name="type" class="java.lang.String" >uam_horizontal</attribute>
			</attributes>
		</link>
		<link id="uam_hl-uam_wp_01_fl-uam_wp_02_fl" from="uam_wp_01_fl" to="uam_wp_02_fl" length="1672.5803418670207" freespeed="100.0" capacity="999.0" permlanes="1.0" oneway="1" modes="uam" >
			<attributes>
				<attribute name="type" class="java.lang.String" >uam_horizontal</attribute>
			</attributes>
		</link>
		<link id="uam_hl-uam_wp_02_fl-uam_wp_00_fl" from="uam_wp_02_fl" to="uam_wp_00_fl" length="1515.7588858390375" freespeed="100.0" capacity="999.0" permlanes="1.0" oneway="1" modes="uam" >
			<attributes>
				<attribute name="type" class="java.lang.String" >uam_horizontal</attribute>
			</attributes>
		</link>
		<link id="uam_hl-uam_wp_02_fl-uam_wp_01_fl" from="uam_wp_02_fl" to="uam_wp_01_fl" length="1672.5803418670207" freespeed="100.0" capacity="999.0" permlanes="1.0" oneway="1" modes="uam" >
			<attributes>
				<attribute name="type" class="java.lang.String" >uam_horizontal</attribute>
			</attributes>
		</link>
		<link id="uam_hl-uam_wp_02_fl-uam_wp_03_fl" from="uam_wp_02_fl" to="uam_wp_03_fl" length="5034.888280786377" freespeed="100.0" capacity="999.0" permlanes="1.0" oneway="1" modes="uam" >
			<attributes>
				<attribute name="type" class="java.lang.String" >uam_horizontal</attribute>
			</attributes>
		</link>
		<link id="uam_hl-uam_wp_03_fl-uam_wp_02_fl" from="uam_wp_03_fl" to="uam_wp_02_fl" length="5034.888280786377" freespeed="100.0" capacity="999.0" permlanes="1.0" oneway="1" modes="uam" >
			<attributes>
				<attribute name="type" class="java.lang.String" >uam_horizontal</attribute>
			</attributes>
		</link>
		<link id="uam_hl-uam_wp_03_fl-uam_wp_04_fl" from="uam_wp_03_fl" to="uam_wp_04_fl" length="1672.5803418670207" freespeed="100.0" capacity="999.0" permlanes="1.0" oneway="1" modes="uam" >
			<attributes>
				<attribute name="type" class="java.lang.String" >uam_horizontal</attribute>
			</attributes>
		</link>
		<link id="uam_hl-uam_wp_03_fl-uam_wp_05_fl" from="uam_wp_03_fl" to="uam_wp_05_fl" length="1515.7588858390375" freespeed="100.0" capacity="999.0" permlanes="1.0" oneway="1" modes="uam" >
			<attributes>
				<attribute name="type" class="java.lang.String" >uam_horizontal</attribute>
			</attributes>
		</link>
		<link id="uam_hl-uam_wp_04_fl-uam_wp_03_fl" from="uam_wp_04_fl" to="uam_wp_03_fl" length="1672.5803418670207" freespeed="100.0" capacity="999.0" permlanes="1.0" oneway="1" modes="uam" >
			<attributes>
				<attribute name="type" class="java.lang.String" >uam_horizontal</attribute>
			</attributes>
		</link>
		<link id="uam_hl-uam_wp_05_fl-uam_wp_03_fl" from="uam_wp_05_fl" to="uam_wp_03_fl" length="1515.7588858390375" freespeed="100.0" capacity="999.0" permlanes="1.0" oneway="1" modes="uam" >
			<attributes>
				<attribute name="type" class="java.lang.String" >uam_horizontal</attribute>
			</attributes>
		</link>
		<link id="uam_sl-uam_st_00_fa-uam_st_00_ga" from="uam_st_00_fa" to="uam_st_00_ga" length="1.0" freespeed="100.0" capacity="999.0" permlanes="1.0" oneway="1" modes="uam,car" >
			<attributes>
				<attribute name="type" class="java.lang.String" >uam_vertical</attribute>
			</attributes>
		</link>
		<link id="uam_sl-uam_st_00_ga-uam_st_00_fa" from="uam_st_00_ga" to="uam_st_00_fa" length="1.0" freespeed="100.0" capacity="999.0" permlanes="1.0" oneway="1" modes="uam,car" >
			<attributes>
				<attribute name="type" class="java.lang.String" >uam_vertical</attribute>
			</attributes>
		</link>
		<link id="uam_sl-uam_st_01_fa-uam_st_01_ga" from="uam_st_01_fa" to="uam_st_01_ga" length="1.0" freespeed="100.0" capacity="999.0" permlanes="1.0" oneway="1" modes="uam,car" >
			<attributes>
				<attribute name="type" class="java.lang.String" >uam_vertical</attribute>
			</attributes>
		</link>
		<link id="uam_sl-uam_st_01_ga-uam_st_01_fa" from="uam_st_01_ga" to="uam_st_01_fa" length="1.0" freespeed="100.0" capacity="999.0" permlanes="1.0" oneway="1" modes="uam,car" >
			<attributes>
				<attribute name="type" class="java.lang.String" >uam_vertical</attribute>
			</attributes>
		</link>
		<link id="uam_sl-uam_st_04_fa-uam_st_04_ga" from="uam_st_04_fa" to="uam_st_04_ga" length="1.0" freespeed="100.0" capacity="999.0" permlanes="1.0" oneway="1" modes="uam,car" >
			<attributes>
				<attribute name="type" class="java.lang.String" >uam_vertical</attribute>
			</attributes>
		</link>
		<link id="uam_sl-uam_st_04_ga-uam_st_04_fa" from="uam_st_04_ga" to="uam_st_04_fa" length="1.0" freespeed="100.0" capacity="999.0" permlanes="1.0" oneway="1" modes="uam,car" >
			<attributes>
				<attribute name="type" class="java.lang.String" >uam_vertical</attribute>
			</attributes>
		</link>
		<link id="uam_sl-uam_st_05_fa-uam_st_05_ga" from="uam_st_05_fa" to="uam_st_05_ga" length="1.0" freespeed="100.0" capacity="999.0" permlanes="1.0" oneway="1" modes="uam,car" >
			<attributes>
				<attribute name="type" class="java.lang.String" >uam_vertical</attribute>
			</attributes>
		</link>
		<link id="uam_sl-uam_st_05_ga-uam_st_05_fa" from="uam_st_05_ga" to="uam_st_05_fa" length="1.0" freespeed="100.0" capacity="999.0" permlanes="1.0" oneway="1" modes="uam,car" >
			<attributes>
				<attribute name="type" class="java.lang.String" >uam_vertical</attribute>
			</attributes>
		</link>
		<link id="uam_vl-uam_st_00_fa-uam_wp_00_fl" from="uam_st_00_fa" to="uam_wp_00_fl" length="600.0" freespeed="100.0" capacity="99999.0" permlanes="1.0" oneway="1" modes="uam" >
			<attributes>
				<attribute name="type" class="java.lang.String" >uam_vertical</attribute>
			</attributes>
		</link>
		<link id="uam_vl-uam_st_01_fa-uam_wp_01_fl" from="uam_st_01_fa" to="uam_wp_01_fl" length="600.0" freespeed="100.0" capacity="99999.0" permlanes="1.0" oneway="1" modes="uam" >
			<attributes>
				<attribute name="type" class="java.lang.String" >uam_vertical</attribute>
			</attributes>
		</link>
		<link id="uam_vl-uam_st_04_fa-uam_wp_04_fl" from="uam_st_04_fa" to="uam_wp_04_fl" length="600.0" freespeed="100.0" capacity="99999.0" permlanes="1.0" oneway="1" modes="uam" >
			<attributes>
				<attribute name="type" class="java.lang.String" >uam_vertical</attribute>
			</attributes>
		</link>
		<link id="uam_vl-uam_st_05_fa-uam_wp_05_fl" from="uam_st_05_fa" to="uam_wp_05_fl" length="600.0" freespeed="100.0" capacity="99999.0" permlanes="1.0" oneway="1" modes="uam" >
			<attributes>
				<attribute name="type" class="java.lang.String" >uam_vertical</attribute>
			</attributes>
		</link>
		<link id="uam_vl-uam_wp_00_fl-uam_st_00_fa" from="uam_wp_00_fl" to="uam_st_00_fa" length="600.0" freespeed="100.0" capacity="99999.0" permlanes="1.0" oneway="1" modes="uam" >
			<attributes>
				<attribute name="type" class="java.lang.String" >uam_vertical</attribute>
			</attributes>
		</link>
		<link id="uam_vl-uam_wp_01_fl-uam_st_01_fa" from="uam_wp_01_fl" to="uam_st_01_fa" length="600.0" freespeed="100.0" capacity="99999.0" permlanes="1.0" oneway="1" modes="uam" >
			<attributes>
				<attribute name="type" class="java.lang.String" >uam_vertical</attribute>
			</attributes>
		</link>
		<link id="uam_vl-uam_wp_04_fl-uam_st_04_fa" from="uam_wp_04_fl" to="uam_st_04_fa" length="600.0" freespeed="100.0" capacity="99999.0" permlanes="1.0" oneway="1" modes="uam" >
			<attributes>
				<attribute name="type" class="java.lang.String" >uam_vertical</attribute>
			</attributes>
		</link>
		<link id="uam_vl-uam_wp_05_fl-uam_st_05_fa" from="uam_wp_05_fl" to="uam_st_05_fa" length="600.0" freespeed="100.0" capacity="99999.0" permlanes="1.0" oneway="1" modes="uam" >
			<attributes>
				<attribute name="type" class="java.lang.String" >uam_vertical</attribute>
			</attributes>
		</link>
	</links>

<!-- ====================================================================== -->

</network>
